test/testcases/IEEE-118_prior_solution.RAW
 0,    100.00, 33, 0, 0, 60.00       / March 01, 2021 16:03:03; Simulator Version 20; BuildDate 2019_1_29
 08/25/93 UW ARCHIVE           100.0  1961 W IEEE 118 Bus Test Case

    1,'Riversde    ', 138.0000,2,   1,   1,   1,0.95499986,  10.982814, 1.10000, 0.90000, 1.10000, 0.90000
    2,'Pokagon     ', 138.0000,1,   1,   1,   1,0.97139269,  11.522840, 1.10000, 0.90000, 1.10000, 0.90000
    3,'HickryCk    ', 138.0000,1,   1,   1,   1,0.96769166,  11.866171, 1.10000, 0.90000, 1.10000, 0.90000
    4,'NwCarlsl    ', 138.0000,2,   1,   1,   1,0.99799991,  15.583643, 1.10000, 0.90000, 1.10000, 0.90000
    5,'Olive       ', 138.0000,1,   1,   1,   1,1.00198412,  16.028656, 1.10000, 0.90000, 1.10000, 0.90000
    6,'Kankakee    ', 138.0000,2,   1,   1,   1,0.98999989,  13.301813, 1.10000, 0.90000, 1.10000, 0.90000
    7,'JacksnRd    ', 138.0000,1,   1,   1,   1,0.98932779,  12.857461, 1.10000, 0.90000, 1.10000, 0.90000
    8,'Olive       ', 138.0000,2,   1,   1,   1,1.01499987,  21.049190, 1.10000, 0.90000, 1.10000, 0.90000
    9,'Bequine     ', 138.0000,1,   1,   1,   1,1.04291809,  28.303295, 1.10000, 0.90000, 1.10000, 0.90000
   10,'Breed       ', 138.0000,2,   1,   1,   1,1.04999983,  35.884205, 1.10000, 0.90000, 1.10000, 0.90000
   11,'SouthBnd    ', 138.0000,1,   1,   1,   1,0.98508877,  13.016078, 1.10000, 0.90000, 1.10000, 0.90000
   12,'TwinBrch    ', 138.0000,2,   1,   1,   1,0.98999989,  12.499333, 1.10000, 0.90000, 1.10000, 0.90000
   13,'Concord     ', 138.0000,1,   1,   1,   1,0.96830261,  11.641163, 1.10000, 0.90000, 1.10000, 0.90000
   14,'GoshenJt    ', 138.0000,1,   1,   1,   1,0.98359114,  11.783148, 1.10000, 0.90000, 1.10000, 0.90000
   15,'FtWayne     ', 138.0000,2,   1,   1,   1,0.96999997,  11.489413, 1.10000, 0.90000, 1.10000, 0.90000
   16,'N. E.       ', 138.0000,1,   1,   1,   1,0.98391080,  12.197787, 1.10000, 0.90000, 1.10000, 0.90000
   17,'Sorenson    ', 138.0000,1,   1,   1,   1,0.99513072,  14.005626, 1.10000, 0.90000, 1.10000, 0.90000
   18,'McKinley    ', 138.0000,2,   1,   1,   1,0.97299987,  11.791963, 1.10000, 0.90000, 1.10000, 0.90000
   19,'Lincoln     ', 138.0000,2,   1,   1,   1,0.96342719,  11.307352, 1.10000, 0.90000, 1.10000, 0.90000
   20,'Adams       ', 138.0000,1,   1,   1,   1,0.95806020,  12.187182, 1.10000, 0.90000, 1.10000, 0.90000
   21,'Jay         ', 138.0000,1,   1,   1,   1,0.95862406,  13.775107, 1.10000, 0.90000, 1.10000, 0.90000
   22,'Randolph    ', 138.0000,1,   1,   1,   1,0.96964902,  16.329604, 1.10000, 0.90000, 1.10000, 0.90000
   23,'CollCrnr    ', 138.0000,1,   1,   1,   1,0.99965584,  21.250349, 1.10000, 0.90000, 1.10000, 0.90000
   24,'Trenton     ', 138.0000,2,   1,   1,   1,0.99199992,  21.118072, 1.10000, 0.90000, 1.10000, 0.90000
   25,'TannrsCk    ', 138.0000,2,   1,   1,   1,1.04999983,  28.184441, 1.10000, 0.90000, 1.10000, 0.90000
   26,'TannrsCk    ', 138.0000,2,   1,   1,   1,1.01499987,  29.965006, 1.10000, 0.90000, 1.10000, 0.90000
   27,'Madison     ', 138.0000,2,   1,   1,   1,0.96799988,  15.612643, 1.10000, 0.90000, 1.10000, 0.90000
   28,'Mullin      ', 138.0000,1,   1,   1,   1,0.96156800,  13.888029, 1.10000, 0.90000, 1.10000, 0.90000
   29,'Grant       ', 138.0000,1,   1,   1,   1,0.96321601,  12.895644, 1.10000, 0.90000, 1.10000, 0.90000
   30,'Sorenson    ', 138.0000,1,   1,   1,   1,0.98551792,  19.040179, 1.10000, 0.90000, 1.10000, 0.90000
   31,'DeerCrk     ', 138.0000,2,   1,   1,   1,0.96699989,  13.012500, 1.10000, 0.90000, 1.10000, 0.90000
   32,'Delaware    ', 138.0000,2,   1,   1,   1,0.96358865,  15.060016, 1.10000, 0.90000, 1.10000, 0.90000
   33,'Haviland    ', 138.0000,1,   1,   1,   1,0.97156006,  10.864479, 1.10000, 0.90000, 1.10000, 0.90000
   34,'Rockhill    ', 138.0000,2,   1,   1,   1,0.98586142,  11.506506, 1.10000, 0.90000, 1.10000, 0.90000
   35,'WestLima    ', 138.0000,1,   1,   1,   1,0.98067844,  11.079310, 1.10000, 0.90000, 1.10000, 0.90000
   36,'Sterling    ', 138.0000,2,   1,   1,   1,0.97999996,  11.083748, 1.10000, 0.90000, 1.10000, 0.90000
   37,'EastLima    ', 138.0000,1,   1,   1,   1,0.99198139,  11.970274, 1.10000, 0.90000, 1.10000, 0.90000
   38,'EastLima    ', 138.0000,1,   1,   1,   1,0.96198314,  17.107215, 1.10000, 0.90000, 1.10000, 0.90000
   39,'NwLibrty    ', 138.0000,1,   1,   1,   1,0.97045219,   8.597793, 1.10000, 0.90000, 1.10000, 0.90000
   40,'West End    ', 138.0000,2,   1,   1,   1,0.96999997,   7.523951, 1.10000, 0.90000, 1.10000, 0.90000
   41,'S.Tiffin    ', 138.0000,1,   1,   1,   1,0.96683311,   7.077873, 1.10000, 0.90000, 1.10000, 0.90000
   42,'Howard      ', 138.0000,2,   1,   1,   1,0.98500001,   8.673407, 1.10000, 0.90000, 1.10000, 0.90000
   43,'S.Kenton    ', 138.0000,1,   1,   1,   1,0.97848123,  11.460410, 1.10000, 0.90000, 1.10000, 0.90000
   44,'WMVernon    ', 138.0000,1,   1,   1,   1,0.98500836,  13.946025, 1.10000, 0.90000, 1.10000, 0.90000
   45,'N.Newark    ', 138.0000,1,   1,   1,   1,0.98665416,  15.776750, 1.10000, 0.90000, 1.10000, 0.90000
   46,'W.Lancst    ', 138.0000,2,   1,   1,   1,1.00500000,  18.582653, 1.10000, 0.90000, 1.10000, 0.90000
   47,'Crooksvl    ', 138.0000,1,   1,   1,   1,1.01705420,  20.805062, 1.10000, 0.90000, 1.10000, 0.90000
   48,'Zanesvll    ', 138.0000,1,   1,   1,   1,1.02063334,  20.025322, 1.10000, 0.90000, 1.10000, 0.90000
   49,'Philo       ', 138.0000,2,   1,   1,   1,1.02499998,  21.028406, 1.10000, 0.90000, 1.10000, 0.90000
   50,'WCambrdg    ', 138.0000,1,   1,   1,   1,1.00108230,  18.989364, 1.10000, 0.90000, 1.10000, 0.90000
   51,'Newcmrst    ', 138.0000,1,   1,   1,   1,0.96687591,  16.370331, 1.10000, 0.90000, 1.10000, 0.90000
   52,'SCoshoct    ', 138.0000,1,   1,   1,   1,0.95681715,  15.416905, 1.10000, 0.90000, 1.10000, 0.90000
   53,'Wooster     ', 138.0000,1,   1,   1,   1,0.94598246,  14.441945, 1.10000, 0.90000, 1.10000, 0.90000
   54,'Torrey      ', 138.0000,2,   1,   1,   1,0.95499998,  15.353661, 1.10000, 0.90000, 1.10000, 0.90000
   55,'Wagenhls    ', 138.0000,2,   1,   1,   1,0.95200002,  15.063735, 1.10000, 0.90000, 1.10000, 0.90000
   56,'Sunnysde    ', 138.0000,2,   1,   1,   1,0.95400000,  15.250438, 1.10000, 0.90000, 1.10000, 0.90000
   57,'WNwPhil1    ', 138.0000,1,   1,   1,   1,0.97058201,  16.455203, 1.10000, 0.90000, 1.10000, 0.90000
   58,'WNwPhil2    ', 138.0000,1,   1,   1,   1,0.95903820,  15.598386, 1.10000, 0.90000, 1.10000, 0.90000
   59,'Tidd        ', 138.0000,2,   1,   1,   1,0.98500001,  19.453034, 1.10000, 0.90000, 1.10000, 0.90000
   60,'SWKammer    ', 138.0000,1,   1,   1,   1,0.99315631,  23.234340, 1.10000, 0.90000, 1.10000, 0.90000
   61,'W.Kammer    ', 138.0000,2,   1,   1,   1,0.99500000,  24.125657, 1.10000, 0.90000, 1.10000, 0.90000
   62,'Natrium     ', 138.0000,2,   1,   1,   1,0.99800003,  23.509120, 1.10000, 0.90000, 1.10000, 0.90000
   63,'Tidd        ', 138.0000,1,   1,   1,   1,0.96873790,  22.831564, 1.10000, 0.90000, 1.10000, 0.90000
   64,'Kammer      ', 138.0000,1,   1,   1,   1,0.98373932,  24.597290, 1.10000, 0.90000, 1.10000, 0.90000
   65,'Muskngum    ', 138.0000,2,   1,   1,   1,1.00500000,  27.722432, 1.10000, 0.90000, 1.10000, 0.90000
   66,'Muskngum    ', 138.0000,2,   1,   1,   1,1.04999995,  27.563418, 1.10000, 0.90000, 1.10000, 0.90000
   67,'Summerfl    ', 138.0000,1,   1,   1,   1,1.01968157,  24.923500, 1.10000, 0.90000, 1.10000, 0.90000
   68,'Sporn       ', 138.0000,1,   1,   1,   1,1.00324941,  27.601348, 1.10000, 0.90000, 1.10000, 0.90000
   69,'Sporn       ', 138.0000,3,   1,   1,   1,1.03499997,  30.000001, 1.10000, 0.90000, 1.10000, 0.90000
   70,'Portsmth    ', 138.0000,2,   1,   1,   1,0.98400003,  22.620454, 1.10000, 0.90000, 1.10000, 0.90000
   71,'NPortsmt    ', 138.0000,1,   1,   1,   1,0.98684454,  22.209583, 1.10000, 0.90000, 1.10000, 0.90000
   72,'Hillsbro    ', 138.0000,2,   1,   1,   1,0.98000002,  21.111973, 1.10000, 0.90000, 1.10000, 0.90000
   73,'Sargents    ', 138.0000,2,   1,   1,   1,0.99100000,  21.998089, 1.10000, 0.90000, 1.10000, 0.90000
   74,'Bellefnt    ', 138.0000,2,   1,   1,   1,0.95800000,  21.671840, 1.10000, 0.90000, 1.10000, 0.90000
   75,'SthPoint    ', 138.0000,1,   1,   1,   1,0.96733296,  22.933699, 1.10000, 0.90000, 1.10000, 0.90000
   76,'Darrah      ', 138.0000,2,   1,   1,   1,0.94300002,  21.804196, 1.10000, 0.90000, 1.10000, 0.90000
   77,'Turner      ', 138.0000,2,   1,   1,   1,1.00600004,  26.758729, 1.10000, 0.90000, 1.10000, 0.90000
   78,'Chemical    ', 138.0000,1,   1,   1,   1,1.00342393,  26.454912, 1.10000, 0.90000, 1.10000, 0.90000
   79,'CapitlHl    ', 138.0000,1,   1,   1,   1,1.00922298,  26.754136, 1.10000, 0.90000, 1.10000, 0.90000
   80,'CabinCrk    ', 138.0000,2,   1,   1,   1,1.03999996,  28.999880, 1.10000, 0.90000, 1.10000, 0.90000
   81,'Kanawha     ', 138.0000,1,   1,   1,   1,0.99680811,  28.150782, 1.10000, 0.90000, 1.10000, 0.90000
   82,'Logan       ', 138.0000,1,   1,   1,   1,0.98874176,  27.280368, 1.10000, 0.90000, 1.10000, 0.90000
   83,'Sprigg      ', 138.0000,1,   1,   1,   1,0.98451895,  28.470704, 1.10000, 0.90000, 1.10000, 0.90000
   84,'BetsyLne    ', 138.0000,1,   1,   1,   1,0.97975141,  31.004554, 1.10000, 0.90000, 1.10000, 0.90000
   85,'BeaverCk    ', 138.0000,2,   1,   1,   1,0.98500001,  32.558808, 1.10000, 0.90000, 1.10000, 0.90000
   86,'Hazard      ', 138.0000,1,   1,   1,   1,0.98669070,  31.189359, 1.10000, 0.90000, 1.10000, 0.90000
   87,'Pinevlle    ', 138.0000,2,   1,   1,   1,1.01499999,  31.448571, 1.10000, 0.90000, 1.10000, 0.90000
   88,'Fremont     ', 138.0000,1,   1,   1,   1,0.98745638,  35.690167, 1.10000, 0.90000, 1.10000, 0.90000
   89,'ClinchRv    ', 138.0000,2,   1,   1,   1,1.00500000,  39.745844, 1.10000, 0.90000, 1.10000, 0.90000
   90,'Holston     ', 138.0000,2,   1,   1,   1,0.98500001,  33.341060, 1.10000, 0.90000, 1.10000, 0.90000
   91,'HolstonT    ', 138.0000,2,   1,   1,   1,0.98000002,  33.360099, 1.10000, 0.90000, 1.10000, 0.90000
   92,'Saltvlle    ', 138.0000,2,   1,   1,   1,0.99227834,  33.859167, 1.10000, 0.90000, 1.10000, 0.90000
   93,'Tazewell    ', 138.0000,1,   1,   1,   1,0.98690647,  30.848102, 1.10000, 0.90000, 1.10000, 0.90000
   94,'Switchbk    ', 138.0000,1,   1,   1,   1,0.99057341,  28.694075, 1.10000, 0.90000, 1.10000, 0.90000
   95,'Caldwell    ', 138.0000,1,   1,   1,   1,0.98092455,  27.721808, 1.10000, 0.90000, 1.10000, 0.90000
   96,'Baileysv    ', 138.0000,1,   1,   1,   1,0.99267000,  27.553929, 1.10000, 0.90000, 1.10000, 0.90000
   97,'Sundial     ', 138.0000,1,   1,   1,   1,1.01136661,  27.926412, 1.10000, 0.90000, 1.10000, 0.90000
   98,'Bradley     ', 138.0000,1,   1,   1,   1,1.02350962,  27.449702, 1.10000, 0.90000, 1.10000, 0.90000
   99,'Hinton      ', 138.0000,2,   1,   1,   1,1.00999999,  27.089147, 1.10000, 0.90000, 1.10000, 0.90000
  100,'Glen Lyn    ', 138.0000,2,   1,   1,   1,1.01699996,  28.086276, 1.10000, 0.90000, 1.10000, 0.90000
  101,'Wythe       ', 138.0000,1,   1,   1,   1,0.99243653,  29.658590, 1.10000, 0.90000, 1.10000, 0.90000
  102,'Smythe      ', 138.0000,1,   1,   1,   1,0.99100232,  32.356010, 1.10000, 0.90000, 1.10000, 0.90000
  103,'Claytor     ', 138.0000,2,   1,   1,   1,1.00071728,  24.493501, 1.10000, 0.90000, 1.10000, 0.90000
  104,'Hancock     ', 138.0000,2,   1,   1,   1,0.97100008,  21.747932, 1.10000, 0.90000, 1.10000, 0.90000
  105,'Roanoke     ', 138.0000,2,   1,   1,   1,0.96599120,  20.625880, 1.10000, 0.90000, 1.10000, 0.90000
  106,'Cloverdl    ', 138.0000,1,   1,   1,   1,0.96178854,  20.377777, 1.10000, 0.90000, 1.10000, 0.90000
  107,'Reusens     ', 138.0000,2,   1,   1,   1,0.95200014,  17.587846, 1.10000, 0.90000, 1.10000, 0.90000
  108,'Blaine      ', 138.0000,1,   1,   1,   1,0.96681100,  19.435189, 1.10000, 0.90000, 1.10000, 0.90000
  109,'Franklin    ', 138.0000,1,   1,   1,   1,0.96746212,  18.986056, 1.10000, 0.90000, 1.10000, 0.90000
  110,'Fieldale    ', 138.0000,2,   1,   1,   1,0.97300011,  18.147439, 1.10000, 0.90000, 1.10000, 0.90000
  111,'DanRiver    ', 138.0000,2,   1,   1,   1,0.98000014,  19.792519, 1.10000, 0.90000, 1.10000, 0.90000
  112,'Danville    ', 138.0000,2,   1,   1,   1,0.97500014,  15.048222, 1.10000, 0.90000, 1.10000, 0.90000
  113,'Deer Crk    ', 138.0000,2,   1,   1,   1,0.99299985,  14.003670, 1.10000, 0.90000, 1.10000, 0.90000
  114,'WMedford    ', 138.0000,1,   1,   1,   1,0.96043628,  14.729791, 1.10000, 0.90000, 1.10000, 0.90000
  115,'Medford     ', 138.0000,1,   1,   1,   1,0.96032411,  14.722145, 1.10000, 0.90000, 1.10000, 0.90000
  116,'KygerCrk    ', 138.0000,2,   1,   1,   1,1.00500000,  27.166359, 1.10000, 0.90000, 1.10000, 0.90000
  117,'Corey       ', 138.0000,1,   1,   1,   1,0.97382432,  10.958331, 1.10000, 0.90000, 1.10000, 0.90000
  118,'WHuntngd    ', 138.0000,1,   1,   1,   1,0.94943833,  21.946245, 1.10000, 0.90000, 1.10000, 0.90000
0 / END OF BUS DATA, BEGIN LOAD DATA
    1,'1 ',1,   1,   1,    51.000,    27.000,     0.000,     0.000,     0.000,     0.000,   1,1, 0
    2,'1 ',1,   1,   1,    20.000,     9.000,     0.000,     0.000,     0.000,     0.000,   1,1, 0
    3,'1 ',1,   1,   1,    39.000,    10.000,     0.000,     0.000,     0.000,     0.000,   1,1, 0
    4,'1 ',1,   1,   1,    39.000,    12.000,     0.000,     0.000,     0.000,     0.000,   1,1, 0
    6,'1 ',1,   1,   1,    52.000,    22.000,     0.000,     0.000,     0.000,     0.000,   1,1, 0
    7,'1 ',1,   1,   1,    19.000,     2.000,     0.000,     0.000,     0.000,     0.000,   1,1, 0
    8,'1 ',1,   1,   1,    28.000,     0.000,     0.000,     0.000,     0.000,     0.000,   1,1, 0
   11,'1 ',1,   1,   1,    70.000,    23.000,     0.000,     0.000,     0.000,     0.000,   1,1, 0
   12,'1 ',1,   1,   1,    47.000,    10.000,     0.000,     0.000,     0.000,     0.000,   1,1, 0
   13,'1 ',1,   1,   1,    34.000,    16.000,     0.000,     0.000,     0.000,     0.000,   1,1, 0
   14,'1 ',1,   1,   1,    14.000,     1.000,     0.000,     0.000,     0.000,     0.000,   1,1, 0
   15,'1 ',1,   1,   1,    90.000,    30.000,     0.000,     0.000,     0.000,     0.000,   1,1, 0
   16,'1 ',1,   1,   1,    25.000,    10.000,     0.000,     0.000,     0.000,     0.000,   1,1, 0
   17,'1 ',1,   1,   1,    11.000,     3.000,     0.000,     0.000,     0.000,     0.000,   1,1, 0
   18,'1 ',1,   1,   1,    60.000,    34.000,     0.000,     0.000,     0.000,     0.000,   1,1, 0
   19,'1 ',1,   1,   1,    45.000,    25.000,     0.000,     0.000,     0.000,     0.000,   1,1, 0
   20,'1 ',1,   1,   1,    18.000,     3.000,     0.000,     0.000,     0.000,     0.000,   1,1, 0
   21,'1 ',1,   1,   1,    14.000,     8.000,     0.000,     0.000,     0.000,     0.000,   1,1, 0
   22,'1 ',1,   1,   1,    10.000,     5.000,     0.000,     0.000,     0.000,     0.000,   1,1, 0
   23,'1 ',1,   1,   1,     7.000,     3.000,     0.000,     0.000,     0.000,     0.000,   1,1, 0
   24,'1 ',1,   1,   1,    13.000,     0.000,     0.000,     0.000,     0.000,     0.000,   1,1, 0
   27,'1 ',1,   1,   1,    71.000,    13.000,     0.000,     0.000,     0.000,     0.000,   1,1, 0
   28,'1 ',1,   1,   1,    17.000,     7.000,     0.000,     0.000,     0.000,     0.000,   1,1, 0
   29,'1 ',1,   1,   1,    24.000,     4.000,     0.000,     0.000,     0.000,     0.000,   1,1, 0
   31,'1 ',1,   1,   1,    43.000,    27.000,     0.000,     0.000,     0.000,     0.000,   1,1, 0
   32,'1 ',1,   1,   1,    59.000,    23.000,     0.000,     0.000,     0.000,     0.000,   1,1, 0
   33,'1 ',1,   1,   1,    23.000,     9.000,     0.000,     0.000,     0.000,     0.000,   1,1, 0
   34,'1 ',1,   1,   1,    59.000,    26.000,     0.000,     0.000,     0.000,     0.000,   1,1, 0
   35,'1 ',1,   1,   1,    33.000,     9.000,     0.000,     0.000,     0.000,     0.000,   1,1, 0
   36,'1 ',1,   1,   1,    31.000,    17.000,     0.000,     0.000,     0.000,     0.000,   1,1, 0
   39,'1 ',1,   1,   1,    27.000,    11.000,     0.000,     0.000,     0.000,     0.000,   1,1, 0
   40,'1 ',1,   1,   1,    66.000,    23.000,     0.000,     0.000,     0.000,     0.000,   1,1, 0
   41,'1 ',1,   1,   1,    37.000,    10.000,     0.000,     0.000,     0.000,     0.000,   1,1, 0
   42,'1 ',1,   1,   1,    96.000,    23.000,     0.000,     0.000,     0.000,     0.000,   1,1, 0
   43,'1 ',1,   1,   1,    18.000,     7.000,     0.000,     0.000,     0.000,     0.000,   1,1, 0
   44,'1 ',1,   1,   1,    16.000,     8.000,     0.000,     0.000,     0.000,     0.000,   1,1, 0
   45,'1 ',1,   1,   1,    53.000,    22.000,     0.000,     0.000,     0.000,     0.000,   1,1, 0
   46,'1 ',1,   1,   1,    28.000,    10.000,     0.000,     0.000,     0.000,     0.000,   1,1, 0
   47,'1 ',1,   1,   1,    34.000,     0.000,     0.000,     0.000,     0.000,     0.000,   1,1, 0
   48,'1 ',1,   1,   1,    20.000,    11.000,     0.000,     0.000,     0.000,     0.000,   1,1, 0
   49,'1 ',1,   1,   1,    87.000,    30.000,     0.000,     0.000,     0.000,     0.000,   1,1, 0
   50,'1 ',1,   1,   1,    17.000,     4.000,     0.000,     0.000,     0.000,     0.000,   1,1, 0
   51,'1 ',1,   1,   1,    17.000,     8.000,     0.000,     0.000,     0.000,     0.000,   1,1, 0
   52,'1 ',1,   1,   1,    18.000,     5.000,     0.000,     0.000,     0.000,     0.000,   1,1, 0
   53,'1 ',1,   1,   1,    23.000,    11.000,     0.000,     0.000,     0.000,     0.000,   1,1, 0
   54,'1 ',1,   1,   1,   113.000,    32.000,     0.000,     0.000,     0.000,     0.000,   1,1, 0
   55,'1 ',1,   1,   1,    63.000,    22.000,     0.000,     0.000,     0.000,     0.000,   1,1, 0
   56,'1 ',1,   1,   1,    84.000,    18.000,     0.000,     0.000,     0.000,     0.000,   1,1, 0
   57,'1 ',1,   1,   1,    12.000,     3.000,     0.000,     0.000,     0.000,     0.000,   1,1, 0
   58,'1 ',1,   1,   1,    12.000,     3.000,     0.000,     0.000,     0.000,     0.000,   1,1, 0
   59,'1 ',1,   1,   1,   277.000,   113.000,     0.000,     0.000,     0.000,     0.000,   1,1, 0
   60,'1 ',1,   1,   1,    78.000,     3.000,     0.000,     0.000,     0.000,     0.000,   1,1, 0
   62,'1 ',1,   1,   1,    77.000,    14.000,     0.000,     0.000,     0.000,     0.000,   1,1, 0
   66,'1 ',1,   1,   1,    39.000,    18.000,     0.000,     0.000,     0.000,     0.000,   1,1, 0
   67,'1 ',1,   1,   1,    28.000,     7.000,     0.000,     0.000,     0.000,     0.000,   1,1, 0
   70,'1 ',1,   1,   1,    66.000,    20.000,     0.000,     0.000,     0.000,     0.000,   1,1, 0
   72,'1 ',1,   1,   1,    12.000,     0.000,     0.000,     0.000,     0.000,     0.000,   1,1, 0
   73,'1 ',1,   1,   1,     6.000,     0.000,     0.000,     0.000,     0.000,     0.000,   1,1, 0
   74,'1 ',1,   1,   1,    68.000,    27.000,     0.000,     0.000,     0.000,     0.000,   1,1, 0
   75,'1 ',1,   1,   1,    47.000,    11.000,     0.000,     0.000,     0.000,     0.000,   1,1, 0
   76,'1 ',1,   1,   1,    68.000,    36.000,     0.000,     0.000,     0.000,     0.000,   1,1, 0
   77,'1 ',1,   1,   1,    61.000,    28.000,     0.000,     0.000,     0.000,     0.000,   1,1, 0
   78,'1 ',1,   1,   1,    71.000,    26.000,     0.000,     0.000,     0.000,     0.000,   1,1, 0
   79,'1 ',1,   1,   1,    39.000,    32.000,     0.000,     0.000,     0.000,     0.000,   1,1, 0
   80,'1 ',1,   1,   1,   130.000,    26.000,     0.000,     0.000,     0.000,     0.000,   1,1, 0
   82,'1 ',1,   1,   1,    54.000,    27.000,     0.000,     0.000,     0.000,     0.000,   1,1, 0
   83,'1 ',1,   1,   1,    20.000,    10.000,     0.000,     0.000,     0.000,     0.000,   1,1, 0
   84,'1 ',1,   1,   1,    11.000,     7.000,     0.000,     0.000,     0.000,     0.000,   1,1, 0
   85,'1 ',1,   1,   1,    24.000,    15.000,     0.000,     0.000,     0.000,     0.000,   1,1, 0
   86,'1 ',1,   1,   1,    21.000,    10.000,     0.000,     0.000,     0.000,     0.000,   1,1, 0
   88,'1 ',1,   1,   1,    48.000,    10.000,     0.000,     0.000,     0.000,     0.000,   1,1, 0
   90,'1 ',1,   1,   1,   163.000,    42.000,     0.000,     0.000,     0.000,     0.000,   1,1, 0
   91,'1 ',1,   1,   1,    10.000,     0.000,     0.000,     0.000,     0.000,     0.000,   1,1, 0
   92,'1 ',1,   1,   1,    65.000,    10.000,     0.000,     0.000,     0.000,     0.000,   1,1, 0
   93,'1 ',1,   1,   1,    12.000,     7.000,     0.000,     0.000,     0.000,     0.000,   1,1, 0
   94,'1 ',1,   1,   1,    30.000,    16.000,     0.000,     0.000,     0.000,     0.000,   1,1, 0
   95,'1 ',1,   1,   1,    42.000,    31.000,     0.000,     0.000,     0.000,     0.000,   1,1, 0
   96,'1 ',1,   1,   1,    38.000,    15.000,     0.000,     0.000,     0.000,     0.000,   1,1, 0
   97,'1 ',1,   1,   1,    15.000,     9.000,     0.000,     0.000,     0.000,     0.000,   1,1, 0
   98,'1 ',1,   1,   1,    34.000,     8.000,     0.000,     0.000,     0.000,     0.000,   1,1, 0
   99,'1 ',1,   1,   1,    42.000,     0.000,     0.000,     0.000,     0.000,     0.000,   1,1, 0
  100,'1 ',1,   1,   1,    37.000,    18.000,     0.000,     0.000,     0.000,     0.000,   1,1, 0
  101,'1 ',1,   1,   1,    22.000,    15.000,     0.000,     0.000,     0.000,     0.000,   1,1, 0
  102,'1 ',1,   1,   1,     5.000,     3.000,     0.000,     0.000,     0.000,     0.000,   1,1, 0
  103,'1 ',1,   1,   1,    23.000,    16.000,     0.000,     0.000,     0.000,     0.000,   1,1, 0
  104,'1 ',1,   1,   1,    38.000,    25.000,     0.000,     0.000,     0.000,     0.000,   1,1, 0
  105,'1 ',1,   1,   1,    31.000,    26.000,     0.000,     0.000,     0.000,     0.000,   1,1, 0
  106,'1 ',1,   1,   1,    43.000,    16.000,     0.000,     0.000,     0.000,     0.000,   1,1, 0
  107,'1 ',1,   1,   1,    50.000,    12.000,     0.000,     0.000,     0.000,     0.000,   1,1, 0
  108,'1 ',1,   1,   1,     2.000,     1.000,     0.000,     0.000,     0.000,     0.000,   1,1, 0
  109,'1 ',1,   1,   1,     8.000,     3.000,     0.000,     0.000,     0.000,     0.000,   1,1, 0
  110,'1 ',1,   1,   1,    39.000,    30.000,     0.000,     0.000,     0.000,     0.000,   1,1, 0
  112,'1 ',1,   1,   1,    68.000,    13.000,     0.000,     0.000,     0.000,     0.000,   1,1, 0
  113,'1 ',1,   1,   1,     6.000,     0.000,     0.000,     0.000,     0.000,     0.000,   1,1, 0
  114,'1 ',1,   1,   1,     8.000,     3.000,     0.000,     0.000,     0.000,     0.000,   1,1, 0
  115,'1 ',1,   1,   1,    22.000,     7.000,     0.000,     0.000,     0.000,     0.000,   1,1, 0
  116,'1 ',1,   1,   1,   184.000,     0.000,     0.000,     0.000,     0.000,     0.000,   1,1, 0
  117,'1 ',1,   1,   1,    20.000,     8.000,     0.000,     0.000,     0.000,     0.000,   1,1, 0
  118,'1 ',1,   1,   1,    33.000,    15.000,     0.000,     0.000,     0.000,     0.000,   1,1, 0
0 / END OF LOAD DATA, BEGIN FIXED SHUNT DATA
     5,' 1', 1,     0.000,   -40.000
    34,' 1', 1,     0.000,    14.000
    37,' 1', 1,     0.000,   -25.000
    44,' 1', 1,     0.000,    10.000
    45,' 1', 1,     0.000,    10.000
    46,' 1', 1,     0.000,    10.000
    48,' 1', 1,     0.000,    15.000
    74,' 1', 1,     0.000,    12.000
    79,' 1', 1,     0.000,    20.000
    82,' 1', 1,     0.000,    20.000
    83,' 1', 1,     0.000,    10.000
   105,' 1', 1,     0.000,    20.000
   107,' 1', 1,     0.000,     6.000
   110,' 1', 1,     0.000,     6.000
0 / END OF FIXED SHUNT DATA, BEGIN GENERATOR DATA
    1,'1 ',     0.000,    -3.104,    15.000,    -5.000,0.95500,    0,   100.000,   0.00000,   1.00000,   0.00000,   0.00000,1.00000,1,  100.0, 10000.000,-10000.000,   1,1.0000,   0,1.0000,   0,1.0000,   0,1.0000,0, 1.0000
    4,'1 ',     0.000,   -15.005,   300.000,  -300.000,0.99800,    0,   100.000,   0.00000,   1.00000,   0.00000,   0.00000,1.00000,1,  100.0, 10000.000,-10000.000,   1,1.0000,   0,1.0000,   0,1.0000,   0,1.0000,0, 1.0000
    6,'1 ',     0.000,    15.930,    50.000,   -13.000,0.99000,    0,   100.000,   0.00000,   1.00000,   0.00000,   0.00000,1.00000,1,  100.0, 10000.000,-10000.000,   1,1.0000,   0,1.0000,   0,1.0000,   0,1.0000,0, 1.0000
    8,'1 ',     0.000,    62.758,   300.000,  -300.000,1.01500,    0,   100.000,   0.00000,   1.00000,   0.00000,   0.00000,1.00000,1,  100.0, 10000.000,-10000.000,   1,1.0000,   0,1.0000,   0,1.0000,   0,1.0000,0, 1.0000
   10,'1 ',   450.000,   -51.042,   200.000,  -147.000,1.05000,    0,   100.000,   0.00000,   1.00000,   0.00000,   0.00000,1.00000,1,  100.0, 10000.000,-10000.000,   1,1.0000,   0,1.0000,   0,1.0000,   0,1.0000,0, 1.0000
   12,'1 ',    85.000,    91.274,   120.000,   -35.000,0.99000,    0,   100.000,   0.00000,   1.00000,   0.00000,   0.00000,1.00000,1,  100.0, 10000.000,-10000.000,   1,1.0000,   0,1.0000,   0,1.0000,   0,1.0000,0, 1.0000
   15,'1 ',     0.000,     3.060,    30.000,   -10.000,0.97000,    0,   100.000,   0.00000,   1.00000,   0.00000,   0.00000,1.00000,1,  100.0, 10000.000,-10000.000,   1,1.0000,   0,1.0000,   0,1.0000,   0,1.0000,0, 1.0000
   18,'1 ',     0.000,    25.532,    50.000,   -16.000,0.97300,    0,   100.000,   0.00000,   1.00000,   0.00000,   0.00000,1.00000,1,  100.0, 10000.000,-10000.000,   1,1.0000,   0,1.0000,   0,1.0000,   0,1.0000,0, 1.0000
   19,'1 ',     0.000,    -8.000,    24.000,    -8.000,0.96200,    0,   100.000,   0.00000,   1.00000,   0.00000,   0.00000,1.00000,1,  100.0, 10000.000,-10000.000,   1,1.0000,   0,1.0000,   0,1.0000,   0,1.0000,0, 1.0000
   24,'1 ',     0.000,   -15.282,   300.000,  -300.000,0.99200,    0,   100.000,   0.00000,   1.00000,   0.00000,   0.00000,1.00000,1,  100.0, 10000.000,-10000.000,   1,1.0000,   0,1.0000,   0,1.0000,   0,1.0000,0, 1.0000
   25,'1 ',   220.000,    49.798,   140.000,   -47.000,1.05000,    0,   100.000,   0.00000,   1.00000,   0.00000,   0.00000,1.00000,1,  100.0, 10000.000,-10000.000,   1,1.0000,   0,1.0000,   0,1.0000,   0,1.0000,0, 1.0000
   26,'1 ',   314.000,     9.905,  1000.000, -1000.000,1.01500,    0,   100.000,   0.00000,   1.00000,   0.00000,   0.00000,1.00000,1,  100.0, 10000.000,-10000.000,   1,1.0000,   0,1.0000,   0,1.0000,   0,1.0000,0, 1.0000
   27,'1 ',     0.000,     2.831,   300.000,  -300.000,0.96800,    0,   100.000,   0.00000,   1.00000,   0.00000,   0.00000,1.00000,1,  100.0, 10000.000,-10000.000,   1,1.0000,   0,1.0000,   0,1.0000,   0,1.0000,0, 1.0000
   31,'1 ',     7.000,    31.976,   300.000,  -300.000,0.96700,    0,   100.000,   0.00000,   1.00000,   0.00000,   0.00000,1.00000,1,  100.0, 10000.000,-10000.000,   1,1.0000,   0,1.0000,   0,1.0000,   0,1.0000,0, 1.0000
   32,'1 ',     0.000,   -14.000,    42.000,   -14.000,0.96300,    0,   100.000,   0.00000,   1.00000,   0.00000,   0.00000,1.00000,1,  100.0, 10000.000,-10000.000,   1,1.0000,   0,1.0000,   0,1.0000,   0,1.0000,0, 1.0000
   34,'1 ',     0.000,    -8.000,    24.000,    -8.000,0.98400,    0,   100.000,   0.00000,   1.00000,   0.00000,   0.00000,1.00000,1,  100.0, 10000.000,-10000.000,   1,1.0000,   0,1.0000,   0,1.0000,   0,1.0000,0, 1.0000
   36,'1 ',     0.000,    -1.252,    24.000,    -8.000,0.98000,    0,   100.000,   0.00000,   1.00000,   0.00000,   0.00000,1.00000,1,  100.0, 10000.000,-10000.000,   1,1.0000,   0,1.0000,   0,1.0000,   0,1.0000,0, 1.0000
   40,'1 ',     0.000,    26.886,   300.000,  -300.000,0.97000,    0,   100.000,   0.00000,   1.00000,   0.00000,   0.00000,1.00000,1,  100.0, 10000.000,-10000.000,   1,1.0000,   0,1.0000,   0,1.0000,   0,1.0000,0, 1.0000
   42,'1 ',     0.000,    41.004,   300.000,  -300.000,0.98500,    0,   100.000,   0.00000,   1.00000,   0.00000,   0.00000,1.00000,1,  100.0, 10000.000,-10000.000,   1,1.0000,   0,1.0000,   0,1.0000,   0,1.0000,0, 1.0000
   46,'1 ',    19.000,    -5.231,   100.000,  -100.000,1.00500,    0,   100.000,   0.00000,   1.00000,   0.00000,   0.00000,1.00000,1,  100.0, 10000.000,-10000.000,   1,1.0000,   0,1.0000,   0,1.0000,   0,1.0000,0, 1.0000
   49,'1 ',   204.000,   115.647,   210.000,   -85.000,1.02500,    0,   100.000,   0.00000,   1.00000,   0.00000,   0.00000,1.00000,1,  100.0, 10000.000,-10000.000,   1,1.0000,   0,1.0000,   0,1.0000,   0,1.0000,0, 1.0000
   54,'1 ',    48.000,     3.902,   300.000,  -300.000,0.95500,    0,   100.000,   0.00000,   1.00000,   0.00000,   0.00000,1.00000,1,  100.0, 10000.000,-10000.000,   1,1.0000,   0,1.0000,   0,1.0000,   0,1.0000,0, 1.0000
   55,'1 ',     0.000,     4.664,    23.000,    -8.000,0.95200,    0,   100.000,   0.00000,   1.00000,   0.00000,   0.00000,1.00000,1,  100.0, 10000.000,-10000.000,   1,1.0000,   0,1.0000,   0,1.0000,   0,1.0000,0, 1.0000
   56,'1 ',     0.000,    -2.286,    15.000,    -8.000,0.95400,    0,   100.000,   0.00000,   1.00000,   0.00000,   0.00000,1.00000,1,  100.0, 10000.000,-10000.000,   1,1.0000,   0,1.0000,   0,1.0000,   0,1.0000,0, 1.0000
   59,'1 ',   155.000,    76.834,   180.000,   -60.000,0.98500,    0,   100.000,   0.00000,   1.00000,   0.00000,   0.00000,1.00000,1,  100.0, 10000.000,-10000.000,   1,1.0000,   0,1.0000,   0,1.0000,   0,1.0000,0, 1.0000
   61,'1 ',   160.000,   -40.394,   300.000,  -100.000,0.99500,    0,   100.000,   0.00000,   1.00000,   0.00000,   0.00000,1.00000,1,  100.0, 10000.000,-10000.000,   1,1.0000,   0,1.0000,   0,1.0000,   0,1.0000,0, 1.0000
   62,'1 ',     0.000,     1.259,    20.000,   -20.000,0.99800,    0,   100.000,   0.00000,   1.00000,   0.00000,   0.00000,1.00000,1,  100.0, 10000.000,-10000.000,   1,1.0000,   0,1.0000,   0,1.0000,   0,1.0000,0, 1.0000
   65,'1 ',   391.000,    80.812,   200.000,   -67.000,1.00500,    0,   100.000,   0.00000,   1.00000,   0.00000,   0.00000,1.00000,1,  100.0, 10000.000,-10000.000,   1,1.0000,   0,1.0000,   0,1.0000,   0,1.0000,0, 1.0000
   66,'1 ',   392.000,    -1.951,   200.000,   -67.000,1.05000,    0,   100.000,   0.00000,   1.00000,   0.00000,   0.00000,1.00000,1,  100.0, 10000.000,-10000.000,   1,1.0000,   0,1.0000,   0,1.0000,   0,1.0000,0, 1.0000
   69,'1 ',   513.388,   -82.378,   300.000,  -300.000,1.03500,    0,   100.000,   0.00000,   1.00000,   0.00000,   0.00000,1.00000,1,  100.0, 10000.000,-10000.000,   1,1.0000,   0,1.0000,   0,1.0000,   0,1.0000,0, 1.0000
   70,'1 ',     0.000,     9.664,    32.000,   -10.000,0.98400,    0,   100.000,   0.00000,   1.00000,   0.00000,   0.00000,1.00000,1,  100.0, 10000.000,-10000.000,   1,1.0000,   0,1.0000,   0,1.0000,   0,1.0000,0, 1.0000
   72,'1 ',     0.000,   -11.130,   100.000,  -100.000,0.98000,    0,   100.000,   0.00000,   1.00000,   0.00000,   0.00000,1.00000,1,  100.0, 10000.000,-10000.000,   1,1.0000,   0,1.0000,   0,1.0000,   0,1.0000,0, 1.0000
   73,'1 ',     0.000,     9.651,   100.000,  -100.000,0.99100,    0,   100.000,   0.00000,   1.00000,   0.00000,   0.00000,1.00000,1,  100.0, 10000.000,-10000.000,   1,1.0000,   0,1.0000,   0,1.0000,   0,1.0000,0, 1.0000
   74,'1 ',     0.000,    -5.628,     9.000,    -6.000,0.95800,    0,   100.000,   0.00000,   1.00000,   0.00000,   0.00000,1.00000,1,  100.0, 10000.000,-10000.000,   1,1.0000,   0,1.0000,   0,1.0000,   0,1.0000,0, 1.0000
   76,'1 ',     0.000,     5.269,    23.000,    -8.000,0.94300,    0,   100.000,   0.00000,   1.00000,   0.00000,   0.00000,1.00000,1,  100.0, 10000.000,-10000.000,   1,1.0000,   0,1.0000,   0,1.0000,   0,1.0000,0, 1.0000
   77,'1 ',     0.000,    11.943,    70.000,   -20.000,1.00600,    0,   100.000,   0.00000,   1.00000,   0.00000,   0.00000,1.00000,1,  100.0, 10000.000,-10000.000,   1,1.0000,   0,1.0000,   0,1.0000,   0,1.0000,0, 1.0000
   80,'1 ',   477.000,   105.050,   280.000,  -165.000,1.04000,    0,   100.000,   0.00000,   1.00000,   0.00000,   0.00000,1.00000,1,  100.0, 10000.000,-10000.000,   1,1.0000,   0,1.0000,   0,1.0000,   0,1.0000,0, 1.0000
   85,'1 ',     0.000,    -5.768,    23.000,    -8.000,0.98500,    0,   100.000,   0.00000,   1.00000,   0.00000,   0.00000,1.00000,1,  100.0, 10000.000,-10000.000,   1,1.0000,   0,1.0000,   0,1.0000,   0,1.0000,0, 1.0000
   87,'1 ',     4.000,    11.022,  1000.000,  -100.000,1.01500,    0,   100.000,   0.00000,   1.00000,   0.00000,   0.00000,1.00000,1,  100.0, 10000.000,-10000.000,   1,1.0000,   0,1.0000,   0,1.0000,   0,1.0000,0, 1.0000
   89,'1 ',   607.000,   -11.794,   300.000,  -210.000,1.00500,    0,   100.000,   0.00000,   1.00000,   0.00000,   0.00000,1.00000,1,  100.0, 10000.000,-10000.000,   1,1.0000,   0,1.0000,   0,1.0000,   0,1.0000,0, 1.0000
   90,'1 ',     0.000,    59.300,   300.000,  -300.000,0.98500,    0,   100.000,   0.00000,   1.00000,   0.00000,   0.00000,1.00000,1,  100.0, 10000.000,-10000.000,   1,1.0000,   0,1.0000,   0,1.0000,   0,1.0000,0, 1.0000
   91,'1 ',     0.000,   -14.847,   100.000,  -100.000,0.98000,    0,   100.000,   0.00000,   1.00000,   0.00000,   0.00000,1.00000,1,  100.0, 10000.000,-10000.000,   1,1.0000,   0,1.0000,   0,1.0000,   0,1.0000,0, 1.0000
   92,'1 ',     0.000,    -3.000,     9.000,    -3.000,0.99000,    0,   100.000,   0.00000,   1.00000,   0.00000,   0.00000,1.00000,1,  100.0, 10000.000,-10000.000,   1,1.0000,   0,1.0000,   0,1.0000,   0,1.0000,0, 1.0000
   99,'1 ',     0.000,   -17.537,   100.000,  -100.000,1.01000,    0,   100.000,   0.00000,   1.00000,   0.00000,   0.00000,1.00000,1,  100.0, 10000.000,-10000.000,   1,1.0000,   0,1.0000,   0,1.0000,   0,1.0000,0, 1.0000
  100,'1 ',   252.000,   110.058,   155.000,   -50.000,1.01700,    0,   100.000,   0.00000,   1.00000,   0.00000,   0.00000,1.00000,1,  100.0, 10000.000,-10000.000,   1,1.0000,   0,1.0000,   0,1.0000,   0,1.0000,0, 1.0000
  103,'1 ',    40.000,    40.000,    40.000,   -15.000,1.01000,    0,   100.000,   0.00000,   1.00000,   0.00000,   0.00000,1.00000,1,  100.0, 10000.000,-10000.000,   1,1.0000,   0,1.0000,   0,1.0000,   0,1.0000,0, 1.0000
  104,'1 ',     0.000,     5.643,    23.000,    -8.000,0.97100,    0,   100.000,   0.00000,   1.00000,   0.00000,   0.00000,1.00000,1,  100.0, 10000.000,-10000.000,   1,1.0000,   0,1.0000,   0,1.0000,   0,1.0000,0, 1.0000
  105,'1 ',     0.000,    -8.000,    23.000,    -8.000,0.96500,    0,   100.000,   0.00000,   1.00000,   0.00000,   0.00000,1.00000,1,  100.0, 10000.000,-10000.000,   1,1.0000,   0,1.0000,   0,1.0000,   0,1.0000,0, 1.0000
  107,'1 ',     0.000,     5.694,   200.000,  -200.000,0.95200,    0,   100.000,   0.00000,   1.00000,   0.00000,   0.00000,1.00000,1,  100.0, 10000.000,-10000.000,   1,1.0000,   0,1.0000,   0,1.0000,   0,1.0000,0, 1.0000
  110,'1 ',     0.000,     4.854,    23.000,    -8.000,0.97300,    0,   100.000,   0.00000,   1.00000,   0.00000,   0.00000,1.00000,1,  100.0, 10000.000,-10000.000,   1,1.0000,   0,1.0000,   0,1.0000,   0,1.0000,0, 1.0000
  111,'1 ',    36.000,    -1.844,  1000.000,  -100.000,0.98000,    0,   100.000,   0.00000,   1.00000,   0.00000,   0.00000,1.00000,1,  100.0, 10000.000,-10000.000,   1,1.0000,   0,1.0000,   0,1.0000,   0,1.0000,0, 1.0000
  112,'1 ',     0.000,    41.512,  1000.000,  -100.000,0.97500,    0,   100.000,   0.00000,   1.00000,   0.00000,   0.00000,1.00000,1,  100.0, 10000.000,-10000.000,   1,1.0000,   0,1.0000,   0,1.0000,   0,1.0000,0, 1.0000
  113,'1 ',     0.000,     6.323,   200.000,  -100.000,0.99300,    0,   100.000,   0.00000,   1.00000,   0.00000,   0.00000,1.00000,1,  100.0, 10000.000,-10000.000,   1,1.0000,   0,1.0000,   0,1.0000,   0,1.0000,0, 1.0000
  116,'1 ',     0.000,    51.324,  1000.000, -1000.000,1.00500,    0,   100.000,   0.00000,   1.00000,   0.00000,   0.00000,1.00000,1,  100.0, 10000.000,-10000.000,   1,1.0000,   0,1.0000,   0,1.0000,   0,1.0000,0, 1.0000
0 / END OF GENERATOR DATA, BEGIN BRANCH DATA
     1,     2,'1 ',3.03000E-2,9.99000E-2,2.54000E-2,   0.00,   0.00,   0.00,  0.00000,  0.00000,  0.00000,  0.00000,1,1,   0.00,   1,1.0000,   0,1.0000,   0,1.0000,   0,1.0000
     1,     3,'1 ',1.29000E-2,4.24000E-2,1.08200E-2,   0.00,   0.00,   0.00,  0.00000,  0.00000,  0.00000,  0.00000,1,1,   0.00,   1,1.0000,   0,1.0000,   0,1.0000,   0,1.0000
     2,    12,'1 ',1.87000E-2,6.16000E-2,1.57200E-2,   0.00,   0.00,   0.00,  0.00000,  0.00000,  0.00000,  0.00000,1,1,   0.00,   1,1.0000,   0,1.0000,   0,1.0000,   0,1.0000
     3,     5,'1 ',2.41000E-2,1.08000E-1,2.84000E-2,   0.00,   0.00,   0.00,  0.00000,  0.00000,  0.00000,  0.00000,1,1,   0.00,   1,1.0000,   0,1.0000,   0,1.0000,   0,1.0000
     3,    12,'1 ',4.84000E-2,1.60000E-1,4.06000E-2,   0.00,   0.00,   0.00,  0.00000,  0.00000,  0.00000,  0.00000,1,1,   0.00,   1,1.0000,   0,1.0000,   0,1.0000,   0,1.0000
     4,     5,'1 ',1.76000E-3,7.98000E-3,2.10000E-3,   0.00,   0.00,   0.00,  0.00000,  0.00000,  0.00000,  0.00000,1,1,   0.00,   1,1.0000,   0,1.0000,   0,1.0000,   0,1.0000
     4,    11,'1 ',2.09000E-2,6.88000E-2,1.74800E-2,   0.00,   0.00,   0.00,  0.00000,  0.00000,  0.00000,  0.00000,1,1,   0.00,   1,1.0000,   0,1.0000,   0,1.0000,   0,1.0000
     5,     6,'1 ',1.19000E-2,5.40000E-2,1.42600E-2,   0.00,   0.00,   0.00,  0.00000,  0.00000,  0.00000,  0.00000,1,1,   0.00,   1,1.0000,   0,1.0000,   0,1.0000,   0,1.0000
     5,    11,'1 ',2.03000E-2,6.82000E-2,1.73800E-2,   0.00,   0.00,   0.00,  0.00000,  0.00000,  0.00000,  0.00000,1,1,   0.00,   1,1.0000,   0,1.0000,   0,1.0000,   0,1.0000
     6,     7,'1 ',4.59000E-3,2.08000E-2,5.50000E-3,   0.00,   0.00,   0.00,  0.00000,  0.00000,  0.00000,  0.00000,1,1,   0.00,   1,1.0000,   0,1.0000,   0,1.0000,   0,1.0000
     7,    12,'1 ',8.62000E-3,3.40000E-2,8.74000E-3,   0.00,   0.00,   0.00,  0.00000,  0.00000,  0.00000,  0.00000,1,1,   0.00,   1,1.0000,   0,1.0000,   0,1.0000,   0,1.0000
     8,     9,'1 ',2.44000E-3,3.05000E-2,1.16200E0,   0.00,   0.00,   0.00,  0.00000,  0.00000,  0.00000,  0.00000,1,1,   0.00,   1,1.0000,   0,1.0000,   0,1.0000,   0,1.0000
     8,    30,'1 ',4.31000E-3,5.04000E-2,5.14000E-1,   0.00,   0.00,   0.00,  0.00000,  0.00000,  0.00000,  0.00000,1,1,   0.00,   1,1.0000,   0,1.0000,   0,1.0000,   0,1.0000
     9,    10,'1 ',2.58000E-3,3.22000E-2,1.23000E0,   0.00,   0.00,   0.00,  0.00000,  0.00000,  0.00000,  0.00000,1,1,   0.00,   1,1.0000,   0,1.0000,   0,1.0000,   0,1.0000
    11,    12,'1 ',5.95000E-3,1.96000E-2,5.02000E-3,   0.00,   0.00,   0.00,  0.00000,  0.00000,  0.00000,  0.00000,1,1,   0.00,   1,1.0000,   0,1.0000,   0,1.0000,   0,1.0000
    11,    13,'1 ',2.22500E-2,7.31000E-2,1.87600E-2,   0.00,   0.00,   0.00,  0.00000,  0.00000,  0.00000,  0.00000,1,1,   0.00,   1,1.0000,   0,1.0000,   0,1.0000,   0,1.0000
    12,    14,'1 ',2.15000E-2,7.07000E-2,1.81600E-2,   0.00,   0.00,   0.00,  0.00000,  0.00000,  0.00000,  0.00000,1,1,   0.00,   1,1.0000,   0,1.0000,   0,1.0000,   0,1.0000
    12,    16,'1 ',2.12000E-2,8.34000E-2,2.14000E-2,   0.00,   0.00,   0.00,  0.00000,  0.00000,  0.00000,  0.00000,1,1,   0.00,   1,1.0000,   0,1.0000,   0,1.0000,   0,1.0000
    12,   117,'1 ',3.29000E-2,1.40000E-1,3.58000E-2,   0.00,   0.00,   0.00,  0.00000,  0.00000,  0.00000,  0.00000,1,1,   0.00,   1,1.0000,   0,1.0000,   0,1.0000,   0,1.0000
    13,    15,'1 ',7.44000E-2,2.44400E-1,6.26800E-2,   0.00,   0.00,   0.00,  0.00000,  0.00000,  0.00000,  0.00000,1,1,   0.00,   1,1.0000,   0,1.0000,   0,1.0000,   0,1.0000
    14,    15,'1 ',5.95000E-2,1.95000E-1,5.02000E-2,   0.00,   0.00,   0.00,  0.00000,  0.00000,  0.00000,  0.00000,1,1,   0.00,   1,1.0000,   0,1.0000,   0,1.0000,   0,1.0000
    15,    17,'1 ',1.32000E-2,4.37000E-2,4.44000E-2,   0.00,   0.00,   0.00,  0.00000,  0.00000,  0.00000,  0.00000,1,1,   0.00,   1,1.0000,   0,1.0000,   0,1.0000,   0,1.0000
    15,    19,'1 ',1.20000E-2,3.94000E-2,1.01000E-2,   0.00,   0.00,   0.00,  0.00000,  0.00000,  0.00000,  0.00000,1,1,   0.00,   1,1.0000,   0,1.0000,   0,1.0000,   0,1.0000
    15,    33,'1 ',3.80000E-2,1.24400E-1,3.19400E-2,   0.00,   0.00,   0.00,  0.00000,  0.00000,  0.00000,  0.00000,1,1,   0.00,   1,1.0000,   0,1.0000,   0,1.0000,   0,1.0000
    16,    17,'1 ',4.54000E-2,1.80100E-1,4.66000E-2,   0.00,   0.00,   0.00,  0.00000,  0.00000,  0.00000,  0.00000,1,1,   0.00,   1,1.0000,   0,1.0000,   0,1.0000,   0,1.0000
    17,    18,'1 ',1.23000E-2,5.05000E-2,1.29800E-2,   0.00,   0.00,   0.00,  0.00000,  0.00000,  0.00000,  0.00000,1,1,   0.00,   1,1.0000,   0,1.0000,   0,1.0000,   0,1.0000
    17,    31,'1 ',4.74000E-2,1.56300E-1,3.99000E-2,   0.00,   0.00,   0.00,  0.00000,  0.00000,  0.00000,  0.00000,1,1,   0.00,   1,1.0000,   0,1.0000,   0,1.0000,   0,1.0000
    17,   113,'1 ',9.13000E-3,3.01000E-2,7.68000E-3,   0.00,   0.00,   0.00,  0.00000,  0.00000,  0.00000,  0.00000,1,1,   0.00,   1,1.0000,   0,1.0000,   0,1.0000,   0,1.0000
    18,    19,'1 ',1.11900E-2,4.93000E-2,1.14200E-2,   0.00,   0.00,   0.00,  0.00000,  0.00000,  0.00000,  0.00000,1,1,   0.00,   1,1.0000,   0,1.0000,   0,1.0000,   0,1.0000
    19,    20,'1 ',2.52000E-2,1.17000E-1,2.98000E-2,   0.00,   0.00,   0.00,  0.00000,  0.00000,  0.00000,  0.00000,1,1,   0.00,   1,1.0000,   0,1.0000,   0,1.0000,   0,1.0000
    19,    34,'1 ',7.52000E-2,2.47000E-1,6.32000E-2,   0.00,   0.00,   0.00,  0.00000,  0.00000,  0.00000,  0.00000,1,1,   0.00,   1,1.0000,   0,1.0000,   0,1.0000,   0,1.0000
    20,    21,'1 ',1.83000E-2,8.49000E-2,2.16000E-2,   0.00,   0.00,   0.00,  0.00000,  0.00000,  0.00000,  0.00000,1,1,   0.00,   1,1.0000,   0,1.0000,   0,1.0000,   0,1.0000
    21,    22,'1 ',2.09000E-2,9.70000E-2,2.46000E-2,   0.00,   0.00,   0.00,  0.00000,  0.00000,  0.00000,  0.00000,1,1,   0.00,   1,1.0000,   0,1.0000,   0,1.0000,   0,1.0000
    22,    23,'1 ',3.42000E-2,1.59000E-1,4.04000E-2,   0.00,   0.00,   0.00,  0.00000,  0.00000,  0.00000,  0.00000,1,1,   0.00,   1,1.0000,   0,1.0000,   0,1.0000,   0,1.0000
    23,    24,'1 ',1.35000E-2,4.92000E-2,4.98000E-2,   0.00,   0.00,   0.00,  0.00000,  0.00000,  0.00000,  0.00000,1,1,   0.00,   1,1.0000,   0,1.0000,   0,1.0000,   0,1.0000
    23,    25,'1 ',1.56000E-2,8.00000E-2,8.64000E-2,   0.00,   0.00,   0.00,  0.00000,  0.00000,  0.00000,  0.00000,1,1,   0.00,   1,1.0000,   0,1.0000,   0,1.0000,   0,1.0000
    23,    32,'1 ',3.17000E-2,1.15300E-1,1.17300E-1,   0.00,   0.00,   0.00,  0.00000,  0.00000,  0.00000,  0.00000,1,1,   0.00,   1,1.0000,   0,1.0000,   0,1.0000,   0,1.0000
    24,    70,'1 ',2.21000E-3,4.11500E-1,1.01980E-1,   0.00,   0.00,   0.00,  0.00000,  0.00000,  0.00000,  0.00000,1,1,   0.00,   1,1.0000,   0,1.0000,   0,1.0000,   0,1.0000
    24,    72,'1 ',4.88000E-2,1.96000E-1,4.88000E-2,   0.00,   0.00,   0.00,  0.00000,  0.00000,  0.00000,  0.00000,1,1,   0.00,   1,1.0000,   0,1.0000,   0,1.0000,   0,1.0000
    25,    27,'1 ',3.18000E-2,1.63000E-1,1.76400E-1,   0.00,   0.00,   0.00,  0.00000,  0.00000,  0.00000,  0.00000,1,1,   0.00,   1,1.0000,   0,1.0000,   0,1.0000,   0,1.0000
    26,    30,'1 ',7.99000E-3,8.60000E-2,9.08000E-1,   0.00,   0.00,   0.00,  0.00000,  0.00000,  0.00000,  0.00000,1,1,   0.00,   1,1.0000,   0,1.0000,   0,1.0000,   0,1.0000
    27,    28,'1 ',1.91300E-2,8.55000E-2,2.16000E-2,   0.00,   0.00,   0.00,  0.00000,  0.00000,  0.00000,  0.00000,1,1,   0.00,   1,1.0000,   0,1.0000,   0,1.0000,   0,1.0000
    27,    32,'1 ',2.29000E-2,7.55000E-2,1.92600E-2,   0.00,   0.00,   0.00,  0.00000,  0.00000,  0.00000,  0.00000,1,1,   0.00,   1,1.0000,   0,1.0000,   0,1.0000,   0,1.0000
    27,   115,'1 ',1.64000E-2,7.41000E-2,1.97200E-2,   0.00,   0.00,   0.00,  0.00000,  0.00000,  0.00000,  0.00000,1,1,   0.00,   1,1.0000,   0,1.0000,   0,1.0000,   0,1.0000
    28,    29,'1 ',2.37000E-2,9.43000E-2,2.38000E-2,   0.00,   0.00,   0.00,  0.00000,  0.00000,  0.00000,  0.00000,1,1,   0.00,   1,1.0000,   0,1.0000,   0,1.0000,   0,1.0000
    29,    31,'1 ',1.08000E-2,3.31000E-2,8.30000E-3,   0.00,   0.00,   0.00,  0.00000,  0.00000,  0.00000,  0.00000,1,1,   0.00,   1,1.0000,   0,1.0000,   0,1.0000,   0,1.0000
    30,    38,'1 ',4.64000E-3,5.40000E-2,4.22000E-1,   0.00,   0.00,   0.00,  0.00000,  0.00000,  0.00000,  0.00000,1,1,   0.00,   1,1.0000,   0,1.0000,   0,1.0000,   0,1.0000
    31,    32,'1 ',2.98000E-2,9.85000E-2,2.51000E-2,   0.00,   0.00,   0.00,  0.00000,  0.00000,  0.00000,  0.00000,1,1,   0.00,   1,1.0000,   0,1.0000,   0,1.0000,   0,1.0000
    32,   113,'1 ',6.15000E-2,2.03000E-1,5.18000E-2,   0.00,   0.00,   0.00,  0.00000,  0.00000,  0.00000,  0.00000,1,1,   0.00,   1,1.0000,   0,1.0000,   0,1.0000,   0,1.0000
    32,   114,'1 ',1.35000E-2,6.12000E-2,1.62800E-2,   0.00,   0.00,   0.00,  0.00000,  0.00000,  0.00000,  0.00000,1,1,   0.00,   1,1.0000,   0,1.0000,   0,1.0000,   0,1.0000
    33,    37,'1 ',4.15000E-2,1.42000E-1,3.66000E-2,   0.00,   0.00,   0.00,  0.00000,  0.00000,  0.00000,  0.00000,1,1,   0.00,   1,1.0000,   0,1.0000,   0,1.0000,   0,1.0000
    34,    36,'1 ',8.71000E-3,2.68000E-2,5.68000E-3,   0.00,   0.00,   0.00,  0.00000,  0.00000,  0.00000,  0.00000,1,1,   0.00,   1,1.0000,   0,1.0000,   0,1.0000,   0,1.0000
    34,    37,'1 ',2.56000E-3,9.40000E-3,9.84000E-3,   0.00,   0.00,   0.00,  0.00000,  0.00000,  0.00000,  0.00000,1,1,   0.00,   1,1.0000,   0,1.0000,   0,1.0000,   0,1.0000
    34,    43,'1 ',4.13000E-2,1.68100E-1,4.22600E-2,   0.00,   0.00,   0.00,  0.00000,  0.00000,  0.00000,  0.00000,1,1,   0.00,   1,1.0000,   0,1.0000,   0,1.0000,   0,1.0000
    35,    36,'1 ',2.24000E-3,1.02000E-2,2.68000E-3,   0.00,   0.00,   0.00,  0.00000,  0.00000,  0.00000,  0.00000,1,1,   0.00,   1,1.0000,   0,1.0000,   0,1.0000,   0,1.0000
    35,    37,'1 ',1.10000E-2,4.97000E-2,1.31800E-2,   0.00,   0.00,   0.00,  0.00000,  0.00000,  0.00000,  0.00000,1,1,   0.00,   1,1.0000,   0,1.0000,   0,1.0000,   0,1.0000
    37,    39,'1 ',3.21000E-2,1.06000E-1,2.70000E-2,   0.00,   0.00,   0.00,  0.00000,  0.00000,  0.00000,  0.00000,1,1,   0.00,   1,1.0000,   0,1.0000,   0,1.0000,   0,1.0000
    37,    40,'1 ',5.93000E-2,1.68000E-1,4.20000E-2,   0.00,   0.00,   0.00,  0.00000,  0.00000,  0.00000,  0.00000,1,1,   0.00,   1,1.0000,   0,1.0000,   0,1.0000,   0,1.0000
    38,    65,'1 ',9.01000E-3,9.86000E-2,1.04600E0,   0.00,   0.00,   0.00,  0.00000,  0.00000,  0.00000,  0.00000,1,1,   0.00,   1,1.0000,   0,1.0000,   0,1.0000,   0,1.0000
    39,    40,'1 ',1.84000E-2,6.05000E-2,1.55200E-2,   0.00,   0.00,   0.00,  0.00000,  0.00000,  0.00000,  0.00000,1,1,   0.00,   1,1.0000,   0,1.0000,   0,1.0000,   0,1.0000
    40,    41,'1 ',1.45000E-2,4.87000E-2,1.22200E-2,   0.00,   0.00,   0.00,  0.00000,  0.00000,  0.00000,  0.00000,1,1,   0.00,   1,1.0000,   0,1.0000,   0,1.0000,   0,1.0000
    40,    42,'1 ',5.55000E-2,1.83000E-1,4.66000E-2,   0.00,   0.00,   0.00,  0.00000,  0.00000,  0.00000,  0.00000,1,1,   0.00,   1,1.0000,   0,1.0000,   0,1.0000,   0,1.0000
    41,    42,'1 ',4.10000E-2,1.35000E-1,3.44000E-2,   0.00,   0.00,   0.00,  0.00000,  0.00000,  0.00000,  0.00000,1,1,   0.00,   1,1.0000,   0,1.0000,   0,1.0000,   0,1.0000
    42,    49,'1 ',7.15000E-2,3.23000E-1,8.60000E-2,   0.00,   0.00,   0.00,  0.00000,  0.00000,  0.00000,  0.00000,1,1,   0.00,   1,1.0000,   0,1.0000,   0,1.0000,   0,1.0000
    42,    49,'1 ',7.15000E-2,3.23000E-1,8.60000E-2,   0.00,   0.00,   0.00,  0.00000,  0.00000,  0.00000,  0.00000,1,1,   0.00,   1,1.0000,   0,1.0000,   0,1.0000,   0,1.0000
    43,    44,'1 ',6.08000E-2,2.45400E-1,6.06800E-2,   0.00,   0.00,   0.00,  0.00000,  0.00000,  0.00000,  0.00000,1,1,   0.00,   1,1.0000,   0,1.0000,   0,1.0000,   0,1.0000
    44,    45,'1 ',2.24000E-2,9.01000E-2,2.24000E-2,   0.00,   0.00,   0.00,  0.00000,  0.00000,  0.00000,  0.00000,1,1,   0.00,   1,1.0000,   0,1.0000,   0,1.0000,   0,1.0000
    45,    46,'1 ',4.00000E-2,1.35600E-1,3.32000E-2,   0.00,   0.00,   0.00,  0.00000,  0.00000,  0.00000,  0.00000,1,1,   0.00,   1,1.0000,   0,1.0000,   0,1.0000,   0,1.0000
    45,    49,'1 ',6.84000E-2,1.86000E-1,4.44000E-2,   0.00,   0.00,   0.00,  0.00000,  0.00000,  0.00000,  0.00000,1,1,   0.00,   1,1.0000,   0,1.0000,   0,1.0000,   0,1.0000
    46,    47,'1 ',3.80000E-2,1.27000E-1,3.16000E-2,   0.00,   0.00,   0.00,  0.00000,  0.00000,  0.00000,  0.00000,1,1,   0.00,   1,1.0000,   0,1.0000,   0,1.0000,   0,1.0000
    46,    48,'1 ',6.01000E-2,1.89000E-1,4.72000E-2,   0.00,   0.00,   0.00,  0.00000,  0.00000,  0.00000,  0.00000,1,1,   0.00,   1,1.0000,   0,1.0000,   0,1.0000,   0,1.0000
    47,    49,'1 ',1.91000E-2,6.25000E-2,1.60400E-2,   0.00,   0.00,   0.00,  0.00000,  0.00000,  0.00000,  0.00000,1,1,   0.00,   1,1.0000,   0,1.0000,   0,1.0000,   0,1.0000
    47,    69,'1 ',8.44000E-2,2.77800E-1,7.09200E-2,   0.00,   0.00,   0.00,  0.00000,  0.00000,  0.00000,  0.00000,1,1,   0.00,   1,1.0000,   0,1.0000,   0,1.0000,   0,1.0000
    48,    49,'1 ',1.79000E-2,5.05000E-2,1.25800E-2,   0.00,   0.00,   0.00,  0.00000,  0.00000,  0.00000,  0.00000,1,1,   0.00,   1,1.0000,   0,1.0000,   0,1.0000,   0,1.0000
    49,    50,'1 ',2.67000E-2,7.52000E-2,1.87400E-2,   0.00,   0.00,   0.00,  0.00000,  0.00000,  0.00000,  0.00000,1,1,   0.00,   1,1.0000,   0,1.0000,   0,1.0000,   0,1.0000
    49,    51,'1 ',4.86000E-2,1.37000E-1,3.42000E-2,   0.00,   0.00,   0.00,  0.00000,  0.00000,  0.00000,  0.00000,1,1,   0.00,   1,1.0000,   0,1.0000,   0,1.0000,   0,1.0000
    49,    54,'1 ',8.69000E-2,2.91000E-1,7.30000E-2,   0.00,   0.00,   0.00,  0.00000,  0.00000,  0.00000,  0.00000,1,1,   0.00,   1,1.0000,   0,1.0000,   0,1.0000,   0,1.0000
    49,    54,'1 ',7.30000E-2,2.89000E-1,7.38000E-2,   0.00,   0.00,   0.00,  0.00000,  0.00000,  0.00000,  0.00000,1,1,   0.00,   1,1.0000,   0,1.0000,   0,1.0000,   0,1.0000
    49,    66,'1 ',1.80000E-2,9.19000E-2,2.48000E-2,   0.00,   0.00,   0.00,  0.00000,  0.00000,  0.00000,  0.00000,1,1,   0.00,   1,1.0000,   0,1.0000,   0,1.0000,   0,1.0000
    49,    66,'1 ',1.80000E-2,9.19000E-2,2.48000E-2,   0.00,   0.00,   0.00,  0.00000,  0.00000,  0.00000,  0.00000,1,1,   0.00,   1,1.0000,   0,1.0000,   0,1.0000,   0,1.0000
    49,    69,'1 ',9.85000E-2,3.24000E-1,8.28000E-2,   0.00,   0.00,   0.00,  0.00000,  0.00000,  0.00000,  0.00000,1,1,   0.00,   1,1.0000,   0,1.0000,   0,1.0000,   0,1.0000
    50,    57,'1 ',4.74000E-2,1.34000E-1,3.32000E-2,   0.00,   0.00,   0.00,  0.00000,  0.00000,  0.00000,  0.00000,1,1,   0.00,   1,1.0000,   0,1.0000,   0,1.0000,   0,1.0000
    51,    52,'1 ',2.03000E-2,5.88000E-2,1.39600E-2,   0.00,   0.00,   0.00,  0.00000,  0.00000,  0.00000,  0.00000,1,1,   0.00,   1,1.0000,   0,1.0000,   0,1.0000,   0,1.0000
    51,    58,'1 ',2.55000E-2,7.19000E-2,1.78800E-2,   0.00,   0.00,   0.00,  0.00000,  0.00000,  0.00000,  0.00000,1,1,   0.00,   1,1.0000,   0,1.0000,   0,1.0000,   0,1.0000
    52,    53,'1 ',4.05000E-2,1.63500E-1,4.05800E-2,   0.00,   0.00,   0.00,  0.00000,  0.00000,  0.00000,  0.00000,1,1,   0.00,   1,1.0000,   0,1.0000,   0,1.0000,   0,1.0000
    53,    54,'1 ',2.63000E-2,1.22000E-1,3.10000E-2,   0.00,   0.00,   0.00,  0.00000,  0.00000,  0.00000,  0.00000,1,1,   0.00,   1,1.0000,   0,1.0000,   0,1.0000,   0,1.0000
    54,    55,'1 ',1.69000E-2,7.07000E-2,2.02000E-2,   0.00,   0.00,   0.00,  0.00000,  0.00000,  0.00000,  0.00000,1,1,   0.00,   1,1.0000,   0,1.0000,   0,1.0000,   0,1.0000
    54,    56,'1 ',2.75000E-3,9.55000E-3,7.32000E-3,   0.00,   0.00,   0.00,  0.00000,  0.00000,  0.00000,  0.00000,1,1,   0.00,   1,1.0000,   0,1.0000,   0,1.0000,   0,1.0000
    54,    59,'1 ',5.03000E-2,2.29300E-1,5.98000E-2,   0.00,   0.00,   0.00,  0.00000,  0.00000,  0.00000,  0.00000,1,1,   0.00,   1,1.0000,   0,1.0000,   0,1.0000,   0,1.0000
    55,    56,'1 ',4.88000E-3,1.51000E-2,3.74000E-3,   0.00,   0.00,   0.00,  0.00000,  0.00000,  0.00000,  0.00000,1,1,   0.00,   1,1.0000,   0,1.0000,   0,1.0000,   0,1.0000
    55,    59,'1 ',4.73900E-2,2.15800E-1,5.64600E-2,   0.00,   0.00,   0.00,  0.00000,  0.00000,  0.00000,  0.00000,1,1,   0.00,   1,1.0000,   0,1.0000,   0,1.0000,   0,1.0000
    56,    57,'1 ',3.43000E-2,9.66000E-2,2.42000E-2,   0.00,   0.00,   0.00,  0.00000,  0.00000,  0.00000,  0.00000,1,1,   0.00,   1,1.0000,   0,1.0000,   0,1.0000,   0,1.0000
    56,    58,'1 ',3.43000E-2,9.66000E-2,2.42000E-2,   0.00,   0.00,   0.00,  0.00000,  0.00000,  0.00000,  0.00000,1,1,   0.00,   1,1.0000,   0,1.0000,   0,1.0000,   0,1.0000
    56,    59,'1 ',8.03000E-2,2.39000E-1,5.36000E-2,   0.00,   0.00,   0.00,  0.00000,  0.00000,  0.00000,  0.00000,1,1,   0.00,   1,1.0000,   0,1.0000,   0,1.0000,   0,1.0000
    56,    59,'1 ',8.25000E-2,2.51000E-1,5.69000E-2,   0.00,   0.00,   0.00,  0.00000,  0.00000,  0.00000,  0.00000,1,1,   0.00,   1,1.0000,   0,1.0000,   0,1.0000,   0,1.0000
    59,    60,'1 ',3.17000E-2,1.45000E-1,3.76000E-2,   0.00,   0.00,   0.00,  0.00000,  0.00000,  0.00000,  0.00000,1,1,   0.00,   1,1.0000,   0,1.0000,   0,1.0000,   0,1.0000
    59,    61,'1 ',3.28000E-2,1.50000E-1,3.88000E-2,   0.00,   0.00,   0.00,  0.00000,  0.00000,  0.00000,  0.00000,1,1,   0.00,   1,1.0000,   0,1.0000,   0,1.0000,   0,1.0000
    60,    61,'1 ',2.64000E-3,1.35000E-2,1.45600E-2,   0.00,   0.00,   0.00,  0.00000,  0.00000,  0.00000,  0.00000,1,1,   0.00,   1,1.0000,   0,1.0000,   0,1.0000,   0,1.0000
    60,    62,'1 ',1.23000E-2,5.61000E-2,1.46800E-2,   0.00,   0.00,   0.00,  0.00000,  0.00000,  0.00000,  0.00000,1,1,   0.00,   1,1.0000,   0,1.0000,   0,1.0000,   0,1.0000
    61,    62,'1 ',8.24000E-3,3.76000E-2,9.80000E-3,   0.00,   0.00,   0.00,  0.00000,  0.00000,  0.00000,  0.00000,1,1,   0.00,   1,1.0000,   0,1.0000,   0,1.0000,   0,1.0000
    62,    66,'1 ',4.82000E-2,2.18000E-1,5.78000E-2,   0.00,   0.00,   0.00,  0.00000,  0.00000,  0.00000,  0.00000,1,1,   0.00,   1,1.0000,   0,1.0000,   0,1.0000,   0,1.0000
    62,    67,'1 ',2.58000E-2,1.17000E-1,3.10000E-2,   0.00,   0.00,   0.00,  0.00000,  0.00000,  0.00000,  0.00000,1,1,   0.00,   1,1.0000,   0,1.0000,   0,1.0000,   0,1.0000
    63,    64,'1 ',1.72000E-3,2.00000E-2,2.16000E-1,   0.00,   0.00,   0.00,  0.00000,  0.00000,  0.00000,  0.00000,1,1,   0.00,   1,1.0000,   0,1.0000,   0,1.0000,   0,1.0000
    64,    65,'1 ',2.69000E-3,3.02000E-2,3.80000E-1,   0.00,   0.00,   0.00,  0.00000,  0.00000,  0.00000,  0.00000,1,1,   0.00,   1,1.0000,   0,1.0000,   0,1.0000,   0,1.0000
    65,    68,'1 ',1.38000E-3,1.60000E-2,6.38000E-1,   0.00,   0.00,   0.00,  0.00000,  0.00000,  0.00000,  0.00000,1,1,   0.00,   1,1.0000,   0,1.0000,   0,1.0000,   0,1.0000
    66,    67,'1 ',2.24000E-2,1.01500E-1,2.68200E-2,   0.00,   0.00,   0.00,  0.00000,  0.00000,  0.00000,  0.00000,1,1,   0.00,   1,1.0000,   0,1.0000,   0,1.0000,   0,1.0000
    68,    81,'1 ',1.75000E-3,2.02000E-2,8.08000E-1,   0.00,   0.00,   0.00,  0.00000,  0.00000,  0.00000,  0.00000,1,1,   0.00,   1,1.0000,   0,1.0000,   0,1.0000,   0,1.0000
    68,   116,'1 ',3.40000E-4,4.05000E-3,1.64000E-1,   0.00,   0.00,   0.00,  0.00000,  0.00000,  0.00000,  0.00000,1,1,   0.00,   1,1.0000,   0,1.0000,   0,1.0000,   0,1.0000
    69,    70,'1 ',3.00000E-2,1.27000E-1,1.22000E-1,   0.00,   0.00,   0.00,  0.00000,  0.00000,  0.00000,  0.00000,1,1,   0.00,   1,1.0000,   0,1.0000,   0,1.0000,   0,1.0000
    69,    75,'1 ',4.05000E-2,1.22000E-1,1.24000E-1,   0.00,   0.00,   0.00,  0.00000,  0.00000,  0.00000,  0.00000,1,1,   0.00,   1,1.0000,   0,1.0000,   0,1.0000,   0,1.0000
    69,    77,'1 ',3.09000E-2,1.01000E-1,1.03800E-1,   0.00,   0.00,   0.00,  0.00000,  0.00000,  0.00000,  0.00000,1,1,   0.00,   1,1.0000,   0,1.0000,   0,1.0000,   0,1.0000
    70,    71,'1 ',8.82000E-3,3.55000E-2,8.78000E-3,   0.00,   0.00,   0.00,  0.00000,  0.00000,  0.00000,  0.00000,1,1,   0.00,   1,1.0000,   0,1.0000,   0,1.0000,   0,1.0000
    70,    74,'1 ',4.01000E-2,1.32300E-1,3.36800E-2,   0.00,   0.00,   0.00,  0.00000,  0.00000,  0.00000,  0.00000,1,1,   0.00,   1,1.0000,   0,1.0000,   0,1.0000,   0,1.0000
    70,    75,'1 ',4.28000E-2,1.41000E-1,3.60000E-2,   0.00,   0.00,   0.00,  0.00000,  0.00000,  0.00000,  0.00000,1,1,   0.00,   1,1.0000,   0,1.0000,   0,1.0000,   0,1.0000
    71,    72,'1 ',4.46000E-2,1.80000E-1,4.44400E-2,   0.00,   0.00,   0.00,  0.00000,  0.00000,  0.00000,  0.00000,1,1,   0.00,   1,1.0000,   0,1.0000,   0,1.0000,   0,1.0000
    71,    73,'1 ',8.66000E-3,4.54000E-2,1.17800E-2,   0.00,   0.00,   0.00,  0.00000,  0.00000,  0.00000,  0.00000,1,1,   0.00,   1,1.0000,   0,1.0000,   0,1.0000,   0,1.0000
    74,    75,'1 ',1.23000E-2,4.06000E-2,1.03400E-2,   0.00,   0.00,   0.00,  0.00000,  0.00000,  0.00000,  0.00000,1,1,   0.00,   1,1.0000,   0,1.0000,   0,1.0000,   0,1.0000
    75,    77,'1 ',6.01000E-2,1.99900E-1,4.97800E-2,   0.00,   0.00,   0.00,  0.00000,  0.00000,  0.00000,  0.00000,1,1,   0.00,   1,1.0000,   0,1.0000,   0,1.0000,   0,1.0000
    75,   118,'1 ',1.45000E-2,4.81000E-2,1.19800E-2,   0.00,   0.00,   0.00,  0.00000,  0.00000,  0.00000,  0.00000,1,1,   0.00,   1,1.0000,   0,1.0000,   0,1.0000,   0,1.0000
    76,    77,'1 ',4.44000E-2,1.48000E-1,3.68000E-2,   0.00,   0.00,   0.00,  0.00000,  0.00000,  0.00000,  0.00000,1,1,   0.00,   1,1.0000,   0,1.0000,   0,1.0000,   0,1.0000
    76,   118,'1 ',1.64000E-2,5.44000E-2,1.35600E-2,   0.00,   0.00,   0.00,  0.00000,  0.00000,  0.00000,  0.00000,1,1,   0.00,   1,1.0000,   0,1.0000,   0,1.0000,   0,1.0000
    77,    78,'1 ',3.76000E-3,1.24000E-2,1.26400E-2,   0.00,   0.00,   0.00,  0.00000,  0.00000,  0.00000,  0.00000,1,1,   0.00,   1,1.0000,   0,1.0000,   0,1.0000,   0,1.0000
    77,    80,'1 ',2.94000E-2,1.05000E-1,2.28000E-2,   0.00,   0.00,   0.00,  0.00000,  0.00000,  0.00000,  0.00000,1,1,   0.00,   1,1.0000,   0,1.0000,   0,1.0000,   0,1.0000
    77,    80,'1 ',1.70000E-2,4.85000E-2,4.72000E-2,   0.00,   0.00,   0.00,  0.00000,  0.00000,  0.00000,  0.00000,1,1,   0.00,   1,1.0000,   0,1.0000,   0,1.0000,   0,1.0000
    77,    82,'1 ',2.98000E-2,8.53000E-2,8.17400E-2,   0.00,   0.00,   0.00,  0.00000,  0.00000,  0.00000,  0.00000,1,1,   0.00,   1,1.0000,   0,1.0000,   0,1.0000,   0,1.0000
    78,    79,'1 ',5.46000E-3,2.44000E-2,6.48000E-3,   0.00,   0.00,   0.00,  0.00000,  0.00000,  0.00000,  0.00000,1,1,   0.00,   1,1.0000,   0,1.0000,   0,1.0000,   0,1.0000
    79,    80,'1 ',1.56000E-2,7.04000E-2,1.87000E-2,   0.00,   0.00,   0.00,  0.00000,  0.00000,  0.00000,  0.00000,1,1,   0.00,   1,1.0000,   0,1.0000,   0,1.0000,   0,1.0000
    80,    96,'1 ',3.56000E-2,1.82000E-1,4.94000E-2,   0.00,   0.00,   0.00,  0.00000,  0.00000,  0.00000,  0.00000,1,1,   0.00,   1,1.0000,   0,1.0000,   0,1.0000,   0,1.0000
    80,    97,'1 ',1.83000E-2,9.34000E-2,2.54000E-2,   0.00,   0.00,   0.00,  0.00000,  0.00000,  0.00000,  0.00000,1,1,   0.00,   1,1.0000,   0,1.0000,   0,1.0000,   0,1.0000
    80,    98,'1 ',2.38000E-2,1.08000E-1,2.86000E-2,   0.00,   0.00,   0.00,  0.00000,  0.00000,  0.00000,  0.00000,1,1,   0.00,   1,1.0000,   0,1.0000,   0,1.0000,   0,1.0000
    80,    99,'1 ',4.54000E-2,2.06000E-1,5.46000E-2,   0.00,   0.00,   0.00,  0.00000,  0.00000,  0.00000,  0.00000,1,1,   0.00,   1,1.0000,   0,1.0000,   0,1.0000,   0,1.0000
    82,    83,'1 ',1.12000E-2,3.66500E-2,3.79600E-2,   0.00,   0.00,   0.00,  0.00000,  0.00000,  0.00000,  0.00000,1,1,   0.00,   1,1.0000,   0,1.0000,   0,1.0000,   0,1.0000
    82,    96,'1 ',1.62000E-2,5.30000E-2,5.44000E-2,   0.00,   0.00,   0.00,  0.00000,  0.00000,  0.00000,  0.00000,1,1,   0.00,   1,1.0000,   0,1.0000,   0,1.0000,   0,1.0000
    83,    84,'1 ',6.25000E-2,1.32000E-1,2.58000E-2,   0.00,   0.00,   0.00,  0.00000,  0.00000,  0.00000,  0.00000,1,1,   0.00,   1,1.0000,   0,1.0000,   0,1.0000,   0,1.0000
    83,    85,'1 ',4.30000E-2,1.48000E-1,3.48000E-2,   0.00,   0.00,   0.00,  0.00000,  0.00000,  0.00000,  0.00000,1,1,   0.00,   1,1.0000,   0,1.0000,   0,1.0000,   0,1.0000
    84,    85,'1 ',3.02000E-2,6.41000E-2,1.23400E-2,   0.00,   0.00,   0.00,  0.00000,  0.00000,  0.00000,  0.00000,1,1,   0.00,   1,1.0000,   0,1.0000,   0,1.0000,   0,1.0000
    85,    86,'1 ',3.50000E-2,1.23000E-1,2.76000E-2,   0.00,   0.00,   0.00,  0.00000,  0.00000,  0.00000,  0.00000,1,1,   0.00,   1,1.0000,   0,1.0000,   0,1.0000,   0,1.0000
    85,    88,'1 ',2.00000E-2,1.02000E-1,2.76000E-2,   0.00,   0.00,   0.00,  0.00000,  0.00000,  0.00000,  0.00000,1,1,   0.00,   1,1.0000,   0,1.0000,   0,1.0000,   0,1.0000
    85,    89,'1 ',2.39000E-2,1.73000E-1,4.70000E-2,   0.00,   0.00,   0.00,  0.00000,  0.00000,  0.00000,  0.00000,1,1,   0.00,   1,1.0000,   0,1.0000,   0,1.0000,   0,1.0000
    86,    87,'1 ',2.82800E-2,2.07400E-1,4.45000E-2,   0.00,   0.00,   0.00,  0.00000,  0.00000,  0.00000,  0.00000,1,1,   0.00,   1,1.0000,   0,1.0000,   0,1.0000,   0,1.0000
...